Version 4
SHEET 1 880 680
WIRE 480 16 288 16
WIRE 480 32 480 16
WIRE 288 48 288 16
WIRE 224 96 96 96
WIRE 96 144 96 96
WIRE 96 272 96 224
WIRE 288 272 288 144
WIRE 288 272 96 272
WIRE 480 272 480 112
WIRE 480 272 288 272
WIRE 288 320 288 272
FLAG 288 320 0
FLAG 96 96 Vin
FLAG 480 16 Vout
SYMBOL current 96 224 R180
WINDOW 0 24 80 Left 2
WINDOW 3 24 0 Left 2
WINDOW 123 0 0 Left 0
WINDOW 39 0 0 Left 0
SYMATTR InstName IB
SYMATTR Value {Ib}
SYMBOL npn 224 48 R0
SYMATTR InstName Q1
SYMATTR Value q2sc458
SYMBOL voltage 480 16 R0
WINDOW 123 0 0 Left 0
WINDOW 39 0 0 Left 0
SYMATTR InstName VCE
SYMATTR Value 1
TEXT -88 344 Left 2 !.dc VCE 0 3 0.01
TEXT -264 -80 Left 2 !.step param Ib 0 10u 2u
